24
0
C 0 0.71 0
C 0 -0.71 0
C 1.23 1.42 0
C 1.23 -1.42 0
C 2.46 0.71 0
C 2.46 -0.71 0
C 3.69 1.42 0
C 3.69 -1.42 0
C 4.92 0.71 0
C 4.92 -0.71 0
C 3.69 2.84 0
C 6.15 1.42 0
C 4.92 3.55 0
C 6.15 2.84 0
C 1.23 2.84 0
C 2.46 3.55 0
C 2.22e-16 3.55 0
C 2.46 4.97 0
C 2.22e-16 4.97 0
C 1.23 5.68 0
C 3.69 5.68 0
C 4.92 4.97 0
C -1.23 2.84 0
C -1.23 1.42 0
30
0.00161135852534
C 0.157 0.794 -0
C 0.162 -0.544 -0
C 1.33 1.45 -0
C 1.32 -1.22 -0
C 2.5 0.78 -0
C 2.49 -0.562 -0
C 3.67 1.45 0
C 3.65 -1.22 0
C 4.84 0.784 0
C 4.81 -0.558 0
C 3.68 2.78 -0
C 6 1.47 0
C 4.83 3.5 -0
C 5.99 2.83 -0
C 1.33 2.79 -0
C 2.5 3.42 -0
C 0.18 3.51 0
C 2.5 4.73 0
C 0.217 4.86 0
C 1.41 5.47 0
C 3.59 5.47 -0
C 4.78 4.85 -0
C -0.978 2.83 0
C -0.987 1.49 -0
C 3.18 6.75 0
C 1.82 6.75 0
C 7.16 3.49 -0
C 7.17 0.827 0
C 8.32 2.83 -0
C 8.33 1.5 0
32
0.00161237501281
C 0.159 0.792 0
C 0.172 -0.547 0
C 1.33 1.45 -0
C 1.33 -1.22 -0
C 2.5 0.783 0
C 2.5 -0.559 0
C 3.67 1.45 -0
C 3.67 -1.21 -0
C 4.83 0.793 0
C 4.83 -0.55 0
C 3.68 2.79 -0
C 5.99 1.48 0
C 4.82 3.5 0
C 5.99 2.83 0
C 1.33 2.79 -0
C 2.5 3.42 -0
C 0.179 3.51 -0
C 2.5 4.74 -0
C 0.217 4.86 0
C 1.41 5.48 0
C 3.59 5.48 0
C 4.78 4.86 0
C -0.978 2.83 0
C -0.987 1.49 0
C 3.17 6.75 0
C 1.82 6.75 -0
C 7.16 3.48 -0
C 7.16 0.809 0
C 8.32 2.82 -0
C 8.31 1.48 0
C 7.15 -0.529 -0
C 6 -1.21 0
